OPT_V9/Results/My_campus_w_initial_sub_3_active_25_03_11_44/powerflow_results_t12.txt
Pandapower Network Debug Info
==================================================

BUS:
       vm_pu  va_degree      p_mw    q_mvar
0   1.004571   0.166791 -0.003938 -0.001338
1   1.005318   0.246990 -0.001871 -0.000514
2   1.004418   0.321123 -0.000079  0.001382
3   1.006965   0.246890 -0.003273 -0.000434
4   1.004209   0.230769 -0.002681  0.000426
5   1.006578   0.263569 -0.003462 -0.000914
6   1.010380   0.466821 -0.004758  0.000434
7   1.002258   0.075884 -0.003025 -0.000439
8   1.001368   0.056315 -0.005014 -0.000877
9   0.999976   0.000303  0.004866  0.002575
10  0.999972   0.000306  0.002482  0.002197
11  0.999968   0.000304  0.004800  0.003662
12  0.999988   0.001689  0.003081  0.000390
13  0.999978   0.001692  0.006434  0.003955
14  0.999973   0.001689  0.006439  0.004912
15  0.999990   0.000349  0.000000  0.000000
16  0.999991   0.000348  0.000000  0.000000
17  0.999989   0.001729  0.000000  0.000000
18  0.999989   0.001728  0.000000  0.000000
19  1.000000   0.000000 -0.003057 -0.012569
20  1.000000   0.000002  0.000000  0.000000
21  1.000000   0.000000  0.002869 -0.012963
22  1.000000   0.000002  0.000000  0.000000
--------------------------------------------------

LINE:
    p_from_mw  q_from_mvar   p_to_mw  q_to_mvar         pl_mw       ql_mvar  i_from_ka   i_to_ka      i_ka  vm_from_pu  va_from_degree  vm_to_pu  va_to_degree  loading_percent
0    0.003047     0.008569 -0.003047  -0.008569  8.090484e-08  6.308284e-08   0.000350  0.000350  0.000350    1.000000        0.000002  0.999990      0.000349         0.152198
1   -0.002879     0.008963  0.002879  -0.008963  2.383960e-07  1.858813e-07   0.000362  0.000362  0.000362    1.000000        0.000002  0.999989      0.001729         0.157545
2    0.012148     0.008434 -0.012148  -0.008434  1.691144e-07  1.318613e-07   0.000569  0.000569  0.000569    0.999990        0.000349  0.999976      0.000303         0.247481
3    0.003081     0.000390 -0.003081  -0.000390  3.334450e-09  2.599926e-09   0.000120  0.000120  0.000120    0.999989        0.001729  0.999988      0.001689         0.051964
4    0.012873     0.008867 -0.012873  -0.008867  1.336069e-07  1.041755e-07   0.000602  0.000602  0.000602    0.999989        0.001729  0.999978      0.001692         0.261591
5   -0.009111    -0.000865  0.009150   0.000895  3.917380e-05  3.054446e-05   0.013209  0.013209  0.013209    0.999991        0.000348  1.004571      0.166791         5.743229
6   -0.008149    -0.000424  0.008200   0.000465  5.165535e-05  4.027653e-05   0.011778  0.011778  0.011778    0.999989        0.001728  1.006578      0.263569         5.120701
7   -0.003019    -0.000434  0.003025   0.000439  6.283298e-06  4.899191e-06   0.004402  0.004402  0.004402    0.999989        0.001728  1.002258      0.075884         1.913808
8   -0.007676    -0.000436  0.007686   0.000444  1.016253e-05  7.923892e-06   0.011097  0.011097  0.011097    0.999989        0.001728  1.001368      0.056315         4.824665
9   -0.007282    -0.005859  0.007282   0.005859  3.021020e-08  2.355539e-08   0.000360  0.000360  0.000360    0.999972        0.000306  0.999976      0.000303         0.156412
10  -0.004800    -0.003662  0.004800   0.003662  1.782785e-08  1.390067e-08   0.000232  0.000232  0.000232    0.999968        0.000304  0.999972      0.000306         0.101038
11  -0.006439    -0.004912  0.006439   0.004912  3.208219e-08  2.501501e-08   0.000312  0.000312  0.000312    0.999973        0.001689  0.999978      0.001692         0.135540
12   0.001949    -0.000870 -0.001946   0.000872  2.666073e-06  2.078781e-06   0.003064  0.003064  0.003064    1.005318        0.246990  1.004571      0.166791         1.332184
13   0.003273     0.000434 -0.003266  -0.000429  7.179694e-06  5.598126e-06   0.004733  0.004733  0.004733    1.006965        0.246890  1.004571      0.166791         2.057874
14   0.000079    -0.001382 -0.000078   0.001384  1.718958e-06  1.340300e-06   0.001990  0.001990  0.001990    1.004418        0.321123  1.005318      0.246990         0.865082
15  -0.002672     0.000433  0.002681  -0.000426  8.891737e-06  6.933034e-06   0.003902  0.003902  0.003902    1.001368        0.056315  1.004209      0.230769         1.696459
16   0.004758    -0.000434 -0.004738   0.000449  1.946534e-05  1.517744e-05   0.006825  0.006825  0.006825    1.010380        0.466821  1.006578      0.263569         2.967343
--------------------------------------------------

TRAFO:
    p_hv_mw  q_hv_mvar   p_lv_mw  q_lv_mvar    pl_mw  ql_mvar   i_hv_ka   i_lv_ka  vm_hv_pu  va_hv_degree  vm_lv_pu  va_lv_degree  loading_percent
0 -0.009101   0.000135  0.009111   0.000865  0.00001    0.001  0.000350  0.013209  0.999990      0.000349  0.999991      0.000348         0.091518
1 -0.018833  -0.000294  0.018843   0.001294  0.00001    0.001  0.000725  0.027262  0.999989      0.001729  0.999989      0.001728         0.188874
2  0.003057   0.012569 -0.003047  -0.008569  0.00001    0.004  0.000107  0.000350  1.000000      0.000000  1.000000      0.000002         0.032339
3 -0.002869   0.012963  0.002879  -0.008963  0.00001    0.004  0.000110  0.000362  1.000000      0.000000  1.000000      0.000002         0.033192
--------------------------------------------------
